Version 4
SHEET 1 1936 864
WIRE 112 -672 -48 -672
WIRE 112 -528 -48 -528
WIRE -64 -400 -192 -400
WIRE 256 -400 256 -496
WIRE 256 -400 160 -400
WIRE 400 -400 256 -400
WIRE 400 -384 400 -400
WIRE 256 -368 256 -400
WIRE -64 -336 -144 -336
WIRE -1632 -304 -1648 -304
WIRE -1536 -304 -1552 -304
WIRE 400 -288 400 -320
WIRE 720 -288 720 -368
WIRE -64 -272 -96 -272
WIRE 256 -272 256 -304
WIRE 256 -272 160 -272
WIRE -64 -208 -256 -208
WIRE 208 -208 160 -208
WIRE -1648 -192 -1648 -304
WIRE -1648 -192 -1760 -192
WIRE -1616 -192 -1648 -192
WIRE -1536 -192 -1536 -304
WIRE -1536 -192 -1552 -192
WIRE -1472 -192 -1472 -208
WIRE -1472 -192 -1536 -192
WIRE -1408 -192 -1472 -192
WIRE -1264 -192 -1344 -192
WIRE -1216 -192 -1264 -192
WIRE -1168 -192 -1216 -192
WIRE -1024 -192 -1168 -192
WIRE -896 -192 -1024 -192
WIRE -736 -192 -896 -192
WIRE -1024 -176 -1024 -192
WIRE 624 -176 608 -176
WIRE 720 -176 720 -208
WIRE 720 -176 704 -176
WIRE 800 -176 720 -176
WIRE -96 -144 -96 -272
WIRE 288 -144 -96 -144
WIRE 400 -144 368 -144
WIRE 608 -144 608 -176
WIRE 608 -144 560 -144
WIRE 800 -144 800 -176
WIRE -896 -128 -896 -192
WIRE 720 -128 720 -176
WIRE -1216 -112 -1216 -192
WIRE -1168 -112 -1168 -192
WIRE -144 -112 -144 -336
WIRE -96 -112 -144 -112
WIRE 96 -112 -96 -112
WIRE 256 -112 256 -272
WIRE 256 -112 96 -112
WIRE -1888 -96 -1888 -192
WIRE -1472 -96 -1472 -192
WIRE -1408 -96 -1472 -96
WIRE -1296 -96 -1344 -96
WIRE -1024 -80 -1024 -96
WIRE -960 -80 -1024 -80
WIRE 208 -64 208 -208
WIRE 400 -64 352 -64
WIRE 640 -64 560 -64
WIRE 672 -64 640 -64
WIRE -96 -48 -96 -112
WIRE 96 -48 96 -112
WIRE 640 -48 640 -64
WIRE -1024 -32 -1024 -80
WIRE 800 -32 800 -64
WIRE -1408 -16 -1472 -16
WIRE -1264 -16 -1264 -192
WIRE -1264 -16 -1344 -16
WIRE -896 -16 -896 -32
WIRE -832 -16 -896 -16
WIRE -736 -16 -736 -32
WIRE -736 -16 -832 -16
WIRE -608 -16 -736 -16
WIRE -896 0 -896 -16
WIRE -832 0 -832 -16
WIRE -1888 32 -1888 -16
WIRE -1888 32 -2016 32
WIRE 640 48 640 32
WIRE 720 48 720 -64
WIRE 720 48 640 48
WIRE 800 48 800 32
WIRE 800 48 720 48
WIRE 880 48 800 48
WIRE -1888 80 -1888 32
WIRE -1632 80 -1760 80
WIRE -1472 80 -1472 -16
WIRE -1472 80 -1552 80
WIRE -1408 80 -1472 80
WIRE -1296 80 -1296 -96
WIRE -1296 80 -1344 80
WIRE -1216 80 -1216 -48
WIRE -1216 80 -1296 80
WIRE -1168 80 -1168 -48
WIRE -1168 80 -1216 80
WIRE -1024 80 -1024 32
WIRE -1024 80 -1168 80
WIRE -896 80 -896 64
WIRE -896 80 -1024 80
WIRE -832 80 -832 64
WIRE -832 80 -896 80
WIRE -736 80 -832 80
WIRE -608 80 -608 64
WIRE -608 80 -736 80
WIRE -192 80 -192 -400
WIRE -192 80 -256 80
WIRE -96 80 -96 32
WIRE -96 80 -192 80
WIRE 96 80 96 16
WIRE 96 80 -96 80
WIRE 208 80 208 0
WIRE 208 80 96 80
WIRE 352 80 352 -64
WIRE 352 80 208 80
WIRE -2016 96 -2016 32
WIRE -1472 96 -1472 80
WIRE -736 96 -736 80
FLAG -1760 -192 L
FLAG -1760 80 N
FLAG -1888 -192 L
FLAG -1888 80 N
FLAG -736 -32 12V
FLAG -2016 96 0
FLAG 256 -496 VTimer
FLAG 880 48 N
FLAG 720 -368 L
FLAG -736 -192 Vrect
FLAG -736 96 Vzero
FLAG -256 80 VRef
FLAG -1472 -208 VbrL
FLAG -1472 96 VbrN
FLAG 112 -528 VRef
FLAG 112 -672 Vtimer
FLAG -256 -208 VTimer
FLAG 400 -288 VRef
FLAG -48 -672 12V
FLAG -48 -528 Vzero
SYMBOL voltage -1888 -112 R0
WINDOW 123 0 0 Left 2
WINDOW 39 0 0 Left 2
SYMATTR InstName V2
SYMATTR Value SINE(0 340 50)
SYMBOL diode -1408 -208 M90
WINDOW 0 0 32 VBottom 2
WINDOW 3 32 32 VTop 2
SYMATTR InstName D1
SYMATTR Value RR2L6S
SYMBOL diode -1408 -32 M90
WINDOW 0 0 32 VBottom 2
WINDOW 3 32 32 VTop 2
SYMATTR InstName D3
SYMATTR Value RR2L6S
SYMBOL diode -1344 -112 R90
WINDOW 0 0 32 VBottom 2
WINDOW 3 32 32 VTop 2
SYMATTR InstName D2
SYMATTR Value RR2L6S
SYMBOL diode -1344 64 R90
WINDOW 0 0 32 VBottom 2
WINDOW 3 32 32 VTop 2
SYMATTR InstName D4
SYMATTR Value RR2L6S
SYMBOL cap -1552 -208 R90
WINDOW 0 0 32 VBottom 2
WINDOW 3 32 32 VTop 2
SYMATTR InstName C3
SYMATTR Value 220e-9
SYMBOL res -1536 -320 R90
WINDOW 0 0 56 VBottom 2
WINDOW 3 32 56 VTop 2
SYMATTR InstName R4
SYMATTR Value 1e6
SYMBOL zener -1008 32 R180
WINDOW 0 24 64 Left 2
WINDOW 3 24 0 Left 2
SYMATTR InstName D5
SYMATTR Value mm3z12vt1g
SYMATTR Prefix X
SYMBOL npn -960 -128 R0
SYMATTR InstName Q1
SYMATTR Value ZTX450
SYMBOL res -1040 -192 R0
SYMATTR InstName R5
SYMATTR Value 2.2e3
SYMBOL cap -1184 -112 R0
SYMATTR InstName C2
SYMATTR Value 10e-6
SYMBOL Misc\\NE555 48 -304 R0
SYMATTR InstName U2
SYMBOL cap 192 -64 R0
SYMATTR InstName C7
SYMATTR Value 0.01e-6
SYMATTR SpiceLine V=16
SYMBOL res -112 -64 R0
SYMATTR InstName R1
SYMATTR Value 220e3
SYMBOL cap 240 -368 R0
SYMATTR InstName C9
SYMATTR Value 5e-6
SYMATTR SpiceLine V=16
SYMBOL diode 112 16 R180
WINDOW 0 24 64 Left 2
WINDOW 3 24 0 Left 2
SYMATTR InstName D8
SYMATTR Value 1N4148
SYMBOL cap 384 -384 R0
SYMATTR InstName C1
SYMATTR Value 100e-9
SYMBOL misc\\TRIAC 688 -128 R0
SYMATTR InstName U1
SYMATTR Value MAC97A6
SYMBOL res 272 -128 R270
WINDOW 0 32 56 VTop 2
WINDOW 3 0 56 VBottom 2
SYMATTR InstName R6
SYMATTR Value 1.8e3
SYMBOL res 720 -192 R90
WINDOW 0 0 56 VBottom 2
WINDOW 3 32 56 VTop 2
SYMATTR InstName R7
SYMATTR Value 390
SYMBOL res 624 -64 R0
SYMATTR InstName R8
SYMATTR Value 390
SYMBOL res 784 -160 R0
SYMATTR InstName R9
SYMATTR Value 47
SYMBOL cap 784 -32 R0
SYMATTR InstName C4
SYMATTR Value 10e-9
SYMBOL res -1536 64 R90
WINDOW 0 0 56 VBottom 2
WINDOW 3 32 56 VTop 2
SYMATTR InstName R10
SYMATTR Value 100
SYMBOL LED_TRIAC_ZCS 448 -128 R0
SYMATTR SpiceModel ""
SYMATTR InstName U3
SYMATTR Value moc3083
SYMBOL ind 704 -304 R0
SYMATTR InstName L1
SYMATTR Value 47
SYMATTR SpiceLine Rser=4e3
SYMBOL cap -1232 -112 R0
SYMATTR InstName C5
SYMATTR Value 10e-6
SYMBOL cap -912 0 R0
SYMATTR InstName C6
SYMATTR Value 10e-6
SYMBOL cap -848 0 R0
SYMATTR InstName C8
SYMATTR Value 10e-6
TEXT -2168 -768 Left 2 !.MODEL ZTX450 NPN IS =3.941445E-14 BF =175 VAF=109.45 NF =1 IKF=.8 ISE=7.4025E-15 NE =1.3 BR =20.5 VAR=14.25 NR =.974 IKR=.1 ISC=3.157E-13 NC =1.2 RB =1.1 RE =.1259 RC =.0539 CJE=63E-12 TF =.75E-9 CJC=15.8E-12 TR =85E-9 VJC=.505 MJC=.39
TEXT -2168 -808 Left 2 !.lib MM3Z12VT1G.LIB
TEXT -2168 -848 Left 2 !.tran 2
TEXT -2168 -728 Left 2 !.include MOC308x.lib
TEXT -2168 -688 Left 2 !.include thyristr.lib
