Version 4
SHEET 1 2244 680
WIRE 112 -64 96 -64
WIRE 208 -64 192 -64
WIRE 720 -48 640 -48
WIRE 784 -48 720 -48
WIRE 944 -48 784 -48
WIRE 720 0 720 -48
WIRE 784 16 784 -48
WIRE 96 32 96 -64
WIRE 96 32 -48 32
WIRE 128 32 96 32
WIRE 208 32 208 -64
WIRE 208 32 192 32
WIRE 240 32 208 32
WIRE 304 32 240 32
WIRE 448 32 368 32
WIRE 528 32 448 32
WIRE 640 32 640 -48
WIRE 640 32 528 32
WIRE 944 32 944 -48
WIRE 640 64 640 32
WIRE 720 112 720 64
WIRE 784 112 784 96
WIRE 784 112 720 112
WIRE -176 128 -176 -48
WIRE 240 128 240 32
WIRE 304 128 240 128
WIRE 416 128 368 128
WIRE 528 128 528 32
WIRE 640 144 640 128
WIRE 720 144 640 144
WIRE 640 176 640 144
WIRE 784 176 784 112
WIRE 944 176 944 112
WIRE 944 176 784 176
WIRE 784 192 784 176
WIRE 304 208 240 208
WIRE 448 208 448 32
WIRE 448 208 368 208
WIRE 720 256 720 144
WIRE 736 256 720 256
WIRE -176 304 -176 208
WIRE 64 304 -48 304
WIRE 240 304 240 208
WIRE 240 304 144 304
WIRE 304 304 240 304
WIRE 416 304 416 128
WIRE 416 304 368 304
WIRE 528 304 528 192
WIRE 528 304 416 304
WIRE 640 304 640 256
WIRE 640 304 528 304
WIRE 784 304 784 256
WIRE 784 304 640 304
WIRE 416 368 416 304
FLAG -48 32 L
FLAG -48 304 N
FLAG -176 -48 L
FLAG -176 304 N
FLAG 416 368 0
SYMBOL cap 512 128 R0
SYMATTR InstName C1
SYMATTR Value 200e-6
SYMBOL res 624 160 R0
SYMATTR InstName R1
SYMATTR Value 470
SYMBOL Misc\\SCR 768 192 R0
SYMATTR InstName U1
SYMATTR Value EC103D1
SYMBOL zener 656 128 R180
WINDOW 0 24 64 Left 2
WINDOW 3 -33 -8 Left 2
SYMATTR InstName D6
SYMATTR Value BZX84C15L
SYMBOL voltage -176 112 R0
WINDOW 123 24 124 Left 2
WINDOW 39 0 0 Left 2
SYMATTR Value2 AC 1
SYMATTR InstName V2
SYMATTR Value SINE(0 340 50 0 0 0 50)
SYMBOL diode 304 16 M90
WINDOW 0 0 32 VBottom 2
WINDOW 3 32 32 VTop 2
SYMATTR InstName D1
SYMATTR Value RR2L6S
SYMBOL diode 304 192 M90
WINDOW 0 0 32 VBottom 2
WINDOW 3 32 32 VTop 2
SYMATTR InstName D2
SYMATTR Value RR2L6S
SYMBOL diode 368 112 R90
WINDOW 0 0 32 VBottom 2
WINDOW 3 32 32 VTop 2
SYMATTR InstName D3
SYMATTR Value RR2L6S
SYMBOL diode 368 288 R90
WINDOW 0 0 32 VBottom 2
WINDOW 3 32 32 VTop 2
SYMATTR InstName D4
SYMATTR Value RR2L6S
SYMBOL cap 128 48 R270
WINDOW 0 32 32 VTop 2
WINDOW 3 0 32 VBottom 2
SYMATTR InstName C2
SYMATTR Value 220e-9
SYMBOL res 96 -48 R270
WINDOW 0 32 56 VTop 2
WINDOW 3 0 56 VBottom 2
SYMATTR InstName R5
SYMATTR Value 1e6
SYMBOL res 48 320 R270
WINDOW 0 32 56 VTop 2
WINDOW 3 0 56 VBottom 2
SYMATTR InstName R6
SYMATTR Value 100
SYMBOL ind 768 0 R0
SYMATTR InstName L1
SYMATTR Value 200e-3
SYMATTR SpiceLine Rser=960
SYMBOL res 928 16 R0
SYMATTR InstName R2
SYMATTR Value 7.5e3
SYMBOL diode 736 64 R180
WINDOW 0 24 64 Left 2
WINDOW 3 24 0 Left 2
SYMATTR InstName D5
SYMATTR Value 1N4001
TEXT 192 -280 Left 2 !.lib Thyristor_SCR_EC103xx_SxSx_A_SPICE_Model_lib.lib
TEXT 192 -256 Left 2 !.tran 2
TEXT 200 -304 Left 2 !.model 1N4001 D(Is=14.11n N=1.984 Rs=33.89m Ikf=94.81 Xti=3 Eg=1.11 Cjo=25.89p M=.44 Vj=.3245 Fc=.5 Bv=75 Ibv=10u Tt=5.7u Iave=1 Vpk=50 mfg=GI type=silicon)
